opendss_networks/LV26_205bus/Loads.dss
new load.Ld5_LOAD_A phases=1 bus1=B845.1.4 kv=0.249992666559  vminpu=0.1 vmaxpu=2
new load.Ld93_LOAD_B phases=1 bus1=B2310.2.4 kv=0.249992666559  vminpu=0.1 vmaxpu=2
new load.Ld133_LOAD_C phases=1 bus1=B98.3.4 kv=0.249992666559  vminpu=0.1 vmaxpu=2
new load.Ld152_LOAD_A phases=1 bus1=B2212.1.4 kv=0.249992666559  vminpu=0.1 vmaxpu=2
new load.Ld184_LOAD_B phases=1 bus1=B1169.2.4 kv=0.249992666559  vminpu=0.1 vmaxpu=2
new load.Ld331_LOAD_C phases=1 bus1=B1455.3.4 kv=0.249992666559  vminpu=0.1 vmaxpu=2
new load.Ld359_LOAD_A phases=1 bus1=B2676.1.4 kv=0.249992666559  vminpu=0.1 vmaxpu=2
new load.Ld391_LOAD_B phases=1 bus1=B2354.2.4 kv=0.249992666559  vminpu=0.1 vmaxpu=2
new load.Ld432_LOAD_C phases=1 bus1=B229.3.4 kv=0.249992666559  vminpu=0.1 vmaxpu=2
new load.Ld501_LOAD_A phases=1 bus1=B697.1.4 kv=0.249992666559  vminpu=0.1 vmaxpu=2
new load.Ld627_LOAD_B phases=1 bus1=B3165.2.4 kv=0.249992666559  vminpu=0.1 vmaxpu=2
new load.Ld694_LOAD_C phases=1 bus1=B272.3.4 kv=0.249992666559  vminpu=0.1 vmaxpu=2
new load.Ld738_LOAD_A phases=1 bus1=B64.1.4 kv=0.249992666559  vminpu=0.1 vmaxpu=2
new load.Ld827_LOAD_B phases=1 bus1=B2288.2.4 kv=0.249992666559  vminpu=0.1 vmaxpu=2
new load.Ld843_LOAD_C phases=1 bus1=B1598.3.4 kv=0.249992666559  vminpu=0.1 vmaxpu=2
new load.Ld859_LOAD_A phases=1 bus1=B636.1.4 kv=0.249992666559  vminpu=0.1 vmaxpu=2
new load.Ld865_LOAD_B phases=1 bus1=B505.2.4 kv=0.249992666559  vminpu=0.1 vmaxpu=2
new load.Ld959_LOAD_C phases=1 bus1=B599.3.4 kv=0.249992666559  vminpu=0.1 vmaxpu=2
new load.Ld978_LOAD_A phases=1 bus1=B2294.1.4 kv=0.249992666559  vminpu=0.1 vmaxpu=2
new load.Ld984_LOAD_B phases=1 bus1=B709.2.4 kv=0.249992666559  vminpu=0.1 vmaxpu=2
new load.Ld1036_LOAD_C phases=1 bus1=B2104.3.4 kv=0.249992666559  vminpu=0.1 vmaxpu=2
new load.Ld1077_LOAD_A phases=1 bus1=B1018.1.4 kv=0.249992666559  vminpu=0.1 vmaxpu=2
new load.Ld1106_LOAD_B phases=1 bus1=B156.2.4 kv=0.249992666559  vminpu=0.1 vmaxpu=2
new load.Ld1149_LOAD_C phases=1 bus1=B1418.3.4 kv=0.249992666559  vminpu=0.1 vmaxpu=2
new load.Ld1171_LOAD_A phases=1 bus1=B981.1.4 kv=0.249992666559  vminpu=0.1 vmaxpu=2
new load.Ld1263_LOAD_B phases=1 bus1=B3356.2.4 kv=0.249992666559  vminpu=0.1 vmaxpu=2
new load.Ld1278_LOAD_C phases=1 bus1=B600.3.4 kv=0.249992666559  vminpu=0.1 vmaxpu=2
new load.Ld1288_LOAD_A phases=1 bus1=B2081.1.4 kv=0.249992666559  vminpu=0.1 vmaxpu=2
new load.Ld1295_LOAD_B phases=1 bus1=B51.2.4 kv=0.249992666559  vminpu=0.1 vmaxpu=2
new load.Ld1328_LOAD_C phases=1 bus1=B1406.3.4 kv=0.249992666559  vminpu=0.1 vmaxpu=2
new load.Ld1462_LOAD_A phases=1 bus1=B1318.1.4 kv=0.249992666559  vminpu=0.1 vmaxpu=2
new load.Ld1519_LOAD_B phases=1 bus1=B2103.2.4 kv=0.249992666559  vminpu=0.1 vmaxpu=2
new load.Ld1554_LOAD_C phases=1 bus1=B2513.3.4 kv=0.249992666559  vminpu=0.1 vmaxpu=2
new load.Ld1588_LOAD_A phases=1 bus1=B3251.1.4 kv=0.249992666559  vminpu=0.1 vmaxpu=2
new load.Ld1595_LOAD_B phases=1 bus1=B1457.2.4 kv=0.249992666559  vminpu=0.1 vmaxpu=2
new load.Ld1618_LOAD_C phases=1 bus1=B842.3.4 kv=0.249992666559  vminpu=0.1 vmaxpu=2
new load.Ld1669_LOAD_A phases=1 bus1=B729.1.4 kv=0.249992666559  vminpu=0.1 vmaxpu=2
new load.Ld1772_LOAD_B phases=1 bus1=B3092.2.4 kv=0.249992666559  vminpu=0.1 vmaxpu=2
new load.Ld1888_LOAD_C phases=1 bus1=B501.3.4 kv=0.249992666559  vminpu=0.1 vmaxpu=2
new load.Ld1894_LOAD_A phases=1 bus1=B3137.1.4 kv=0.249992666559  vminpu=0.1 vmaxpu=2
new load.Ld2001_LOAD_B phases=1 bus1=B1658.2.4 kv=0.249992666559  vminpu=0.1 vmaxpu=2
new load.Ld2006_LOAD_C phases=1 bus1=B3308.3.4 kv=0.249992666559  vminpu=0.1 vmaxpu=2
new load.Ld2023_LOAD_A phases=1 bus1=B1208.1.4 kv=0.249992666559  vminpu=0.1 vmaxpu=2
new load.Ld2204_LOAD_B phases=1 bus1=B2572.2.4 kv=0.249992666559  vminpu=0.1 vmaxpu=2
new load.Ld2270_LOAD_C phases=1 bus1=B3084.3.4 kv=0.249992666559  vminpu=0.1 vmaxpu=2
new load.Ld2299_LOAD_A phases=1 bus1=B1550.1.4 kv=0.249992666559  vminpu=0.1 vmaxpu=2
new load.Ld2360_LOAD_B phases=1 bus1=B37.2.4 kv=0.249992666559  vminpu=0.1 vmaxpu=2
new load.Ld2361_LOAD_C phases=1 bus1=B2587.3.4 kv=0.249992666559  vminpu=0.1 vmaxpu=2
new load.Ld2383_LOAD_A phases=1 bus1=B196.1.4 kv=0.249992666559  vminpu=0.1 vmaxpu=2
new load.Ld2407_LOAD_B phases=1 bus1=B2631.2.4 kv=0.249992666559  vminpu=0.1 vmaxpu=2
new load.Ld2430_LOAD_C phases=1 bus1=B3067.3.4 kv=0.249992666559  vminpu=0.1 vmaxpu=2
new load.Ld2478_LOAD_A phases=1 bus1=B3326.1.4 kv=0.249992666559  vminpu=0.1 vmaxpu=2
new load.Ld2482_LOAD_B phases=1 bus1=B2996.2.4 kv=0.249992666559  vminpu=0.1 vmaxpu=2
new load.Ld2507_LOAD_C phases=1 bus1=B1928.3.4 kv=0.249992666559  vminpu=0.1 vmaxpu=2
new load.Ld2610_LOAD_A phases=1 bus1=B1668.1.4 kv=0.249992666559  vminpu=0.1 vmaxpu=2
new load.Ld2683_LOAD_B phases=1 bus1=B7.2.4 kv=0.249992666559  vminpu=0.1 vmaxpu=2
new load.Ld2705_LOAD_C phases=1 bus1=B2697.3.4 kv=0.249992666559  vminpu=0.1 vmaxpu=2
new load.Ld2728_LOAD_A phases=1 bus1=B942.1.4 kv=0.249992666559  vminpu=0.1 vmaxpu=2
new load.Ld2906_LOAD_B phases=1 bus1=B2693.2.4 kv=0.249992666559  vminpu=0.1 vmaxpu=2
new load.Ld2913_LOAD_C phases=1 bus1=B69.3.4 kv=0.249992666559  vminpu=0.1 vmaxpu=2
new load.Ld2936_LOAD_A phases=1 bus1=B371.1.4 kv=0.249992666559  vminpu=0.1 vmaxpu=2
new load.Ld2942_LOAD_B phases=1 bus1=B984.2.4 kv=0.249992666559  vminpu=0.1 vmaxpu=2
new load.Ld3016_LOAD_C phases=1 bus1=B1509.3.4 kv=0.249992666559  vminpu=0.1 vmaxpu=2
new load.Ld3019_LOAD_A phases=1 bus1=B1281.1.4 kv=0.249992666559  vminpu=0.1 vmaxpu=2
new load.Ld3044_LOAD_B phases=1 bus1=B3371.2.4 kv=0.249992666559  vminpu=0.1 vmaxpu=2
new load.Ld3191_LOAD_C phases=1 bus1=B110.3.4 kv=0.249992666559  vminpu=0.1 vmaxpu=2
new load.Ld3220_LOAD_A phases=1 bus1=B2180.1.4 kv=0.249992666559  vminpu=0.1 vmaxpu=2
new load.Ld3251_LOAD_B phases=1 bus1=B39.2.4 kv=0.249992666559  vminpu=0.1 vmaxpu=2
new load.Ld3306_LOAD_C phases=1 bus1=B717.3.4 kv=0.249992666559  vminpu=0.1 vmaxpu=2
new load.Ld3346_LOAD_A phases=1 bus1=B1236.1.4 kv=0.249992666559  vminpu=0.1 vmaxpu=2
new load.Ld3357_LOAD_B phases=1 bus1=B1831.2.4 kv=0.249992666559  vminpu=0.1 vmaxpu=2
new load.Ld3538_LOAD_C phases=1 bus1=B1152.3.4 kv=0.249992666559  vminpu=0.1 vmaxpu=2
new load.Ld3543_LOAD_A phases=1 bus1=B745.1.4 kv=0.249992666559  vminpu=0.1 vmaxpu=2
new load.Ld3548_LOAD_B phases=1 bus1=B1864.2.4 kv=0.249992666559  vminpu=0.1 vmaxpu=2
new load.Ld3568_LOAD_C phases=1 bus1=B203.3.4 kv=0.249992666559  vminpu=0.1 vmaxpu=2
new load.Ld3584_LOAD_A phases=1 bus1=B746.1.4 kv=0.249992666559  vminpu=0.1 vmaxpu=2
new load.Ld3593_LOAD_B phases=1 bus1=B998.2.4 kv=0.249992666559  vminpu=0.1 vmaxpu=2
new load.Ld3695_LOAD_C phases=1 bus1=B3221.3.4 kv=0.249992666559  vminpu=0.1 vmaxpu=2
new load.Ld3731_LOAD_A phases=1 bus1=B2986.1.4 kv=0.249992666559  vminpu=0.1 vmaxpu=2
new load.Ld3766_LOAD_B phases=1 bus1=B1474.2.4 kv=0.249992666559  vminpu=0.1 vmaxpu=2
new load.Ld3900_LOAD_C phases=1 bus1=B1293.3.4 kv=0.249992666559  vminpu=0.1 vmaxpu=2
new load.Ld3974_LOAD_A phases=1 bus1=B2385.1.4 kv=0.249992666559  vminpu=0.1 vmaxpu=2
new load.Ld4027_LOAD_B phases=1 bus1=B1380.2.4 kv=0.249992666559  vminpu=0.1 vmaxpu=2
new load.Ld4138_LOAD_C phases=1 bus1=B2741.3.4 kv=0.249992666559  vminpu=0.1 vmaxpu=2
new load.Ld4216_LOAD_A phases=1 bus1=B2184.1.4 kv=0.249992666559  vminpu=0.1 vmaxpu=2
new load.Ld4217_LOAD_B phases=1 bus1=B5.2.4 kv=0.249992666559  vminpu=0.1 vmaxpu=2
new load.Ld4335_LOAD_C phases=1 bus1=B3402.3.4 kv=0.249992666559  vminpu=0.1 vmaxpu=2
new load.Ld4338_LOAD_A phases=1 bus1=B3324.1.4 kv=0.249992666559  vminpu=0.1 vmaxpu=2
new load.Ld4374_LOAD_B phases=1 bus1=B2037.2.4 kv=0.249992666559  vminpu=0.1 vmaxpu=2
new load.Ld4439_LOAD_C phases=1 bus1=B679.3.4 kv=0.249992666559  vminpu=0.1 vmaxpu=2
new load.Ld4527_LOAD_A phases=1 bus1=B1375.1.4 kv=0.249992666559  vminpu=0.1 vmaxpu=2
new load.Ld4534_LOAD_B phases=1 bus1=B3100.2.4 kv=0.249992666559  vminpu=0.1 vmaxpu=2
new load.Ld4643_LOAD_C phases=1 bus1=B1781.3.4 kv=0.249992666559  vminpu=0.1 vmaxpu=2
new load.Ld4656_LOAD_A phases=1 bus1=B2293.1.4 kv=0.249992666559  vminpu=0.1 vmaxpu=2
